reduced_networks/case1197/50pct/case1197_reduced.m
%% case1197_reduced -- Opti-KRON reduction of case1197
%
%   1197 buses reduced to 593 super-nodes (50.5% reduction), 592 branches.
%   Loads are scenario 1 of 1.
%
%   Equivalent branches come from the Kron-reduced admittance matrix, so a
%   negative resistance is possible and is not an error -- an equivalent
%   branch stands in for eliminated network, not for a conductor.
%
%   Bus map -- each super-node and the original buses it represents:
%     1 <- 1
%     2 <- 2 3
%     4 <- 4 5 6
%     7 <- 7 8 22
%     9 <- 9
%     10 <- 10
%     11 <- 11
%     12 <- 12
%     13 <- 13
%     14 <- 14 15
%     16 <- 16
%     17 <- 17 18
%     19 <- 19
%     20 <- 20 21
%     23 <- 23
%     24 <- 24
%     25 <- 25
%     26 <- 26
%     27 <- 27 28
%     29 <- 29
%     30 <- 30 31
%     32 <- 32
%     33 <- 33 34
%     35 <- 35 37 38
%     36 <- 36
%     39 <- 39
%     40 <- 40 42 43 44 46
%     41 <- 41
%     45 <- 45
%     47 <- 47 48 49 51
%     50 <- 50
%     52 <- 52 53
%     54 <- 54 56 57
%     55 <- 55
%     58 <- 58
%     59 <- 59 61 62 63 65
%     60 <- 60
%     64 <- 64
%     66 <- 66 67 70
%     68 <- 68 69
%     71 <- 71 72
%     73 <- 73 75 76
%     74 <- 74
%     77 <- 77
%     78 <- 78 80 81 82 84
%     79 <- 79
%     83 <- 83
%     85 <- 85
%     86 <- 86 87
%     88 <- 88
%     89 <- 89
%     90 <- 90 91 92
%     93 <- 93 95 96 97 99
%     94 <- 94
%     98 <- 98
%     100 <- 100 101 102 104
%     103 <- 103
%     105 <- 105 106
%     107 <- 107 109 110
%     108 <- 108
%     111 <- 111
%     112 <- 112 114 115 116 118
%     113 <- 113
%     117 <- 117
%     119 <- 119 120 121 123
%     122 <- 122
%     124 <- 124 125
%     126 <- 126 128 129
%     127 <- 127
%     130 <- 130
%     131 <- 131 133 134 135 137
%     132 <- 132
%     136 <- 136
%     138 <- 138
%     139 <- 139 140
%     141 <- 141 143 144
%     142 <- 142
%     145 <- 145
%     146 <- 146 148 149 150 152
%     147 <- 147
%     151 <- 151
%     153 <- 153 154 155 157
%     156 <- 156
%     158 <- 158 159
%     160 <- 160 162 163
%     161 <- 161
%     164 <- 164
%     165 <- 165 167 168 169 171
%     166 <- 166
%     170 <- 170
%     172 <- 172 173 174 176
%     175 <- 175
%     177 <- 177 178
%     179 <- 179 181 182
%     180 <- 180
%     183 <- 183
%     184 <- 184 186 187 188 190
%     185 <- 185
%     189 <- 189
%     191 <- 191
%     192 <- 192 193
%     194 <- 194 196 197
%     195 <- 195
%     198 <- 198
%     199 <- 199 201 202 203 205
%     200 <- 200
%     204 <- 204
%     206 <- 206 207 210
%     208 <- 208 209
%     211 <- 211 212
%     213 <- 213 215 216
%     214 <- 214
%     217 <- 217
%     218 <- 218 220 221 222 224
%     219 <- 219
%     223 <- 223
%     225 <- 225 229
%     226 <- 226 227 228
%     230 <- 230 231
%     232 <- 232 234 235
%     233 <- 233
%     236 <- 236
%     237 <- 237 239 240 241 243
%     238 <- 238
%     242 <- 242
%     244 <- 244
%     245 <- 245 246
%     247 <- 247 249 250
%     248 <- 248
%     251 <- 251
%     252 <- 252 254 255 256 258
%     253 <- 253
%     257 <- 257
%     259 <- 259 263
%     260 <- 260 261 262
%     264 <- 264 265
%     266 <- 266 268 269
%     267 <- 267
%     270 <- 270
%     271 <- 271 273 274 275 277
%     272 <- 272
%     276 <- 276
%     278 <- 278 279 280 282
%     281 <- 281
%     283 <- 283 284
%     285 <- 285 287 288
%     286 <- 286
%     289 <- 289
%     290 <- 290 292 293 294 296
%     291 <- 291
%     295 <- 295
%     297 <- 297
%     298 <- 298 299
%     300 <- 300
%     301 <- 301
%     302 <- 302 303 304
%     305 <- 305 307 308 309 311
%     306 <- 306
%     310 <- 310
%     312 <- 312 313 314 316
%     315 <- 315
%     317 <- 317 318
%     319 <- 319 321 322
%     320 <- 320
%     323 <- 323
%     324 <- 324 326 327 328 330
%     325 <- 325
%     329 <- 329
%     331 <- 331 332 333 335
%     334 <- 334
%     336 <- 336 337
%     338 <- 338 340 341
%     339 <- 339
%     342 <- 342
%     343 <- 343 345 346 347 349
%     344 <- 344
%     348 <- 348
%     350 <- 350
%     351 <- 351 352
%     353 <- 353
%     354 <- 354
%     355 <- 355 356 357
%     358 <- 358 360 361 362 364
%     359 <- 359
%     363 <- 363
%     365 <- 365 366 367 369
%     368 <- 368
%     370 <- 370 371
%     372 <- 372
%     373 <- 373
%     374 <- 374 375 376
%     377 <- 377 379 380 381 383
%     378 <- 378
%     382 <- 382
%     384 <- 384 385 386 388
%     387 <- 387
%     389 <- 389 390
%     391 <- 391 393 394
%     392 <- 392
%     395 <- 395
%     396 <- 396 398 399 400 402
%     397 <- 397
%     401 <- 401
%     403 <- 403
%     404 <- 404 405
%     406 <- 406
%     407 <- 407
%     408 <- 408 409 410
%     411 <- 411 413 414 415 417
%     412 <- 412
%     416 <- 416
%     418 <- 418 422
%     419 <- 419 420 421
%     423 <- 423 424
%     425 <- 425 427 428
%     426 <- 426
%     429 <- 429
%     430 <- 430 432 433 434 436
%     431 <- 431
%     435 <- 435
%     437 <- 437 438 441
%     439 <- 439 440
%     442 <- 442 443
%     444 <- 444
%     445 <- 445
%     446 <- 446 447 448
%     449 <- 449 451 452 453 455
%     450 <- 450
%     454 <- 454
%     456 <- 456
%     457 <- 457 458
%     459 <- 459
%     460 <- 460
%     461 <- 461 462 463
%     464 <- 464 466 467 468 470
%     465 <- 465
%     469 <- 469
%     471 <- 471 472 473 475
%     474 <- 474
%     476 <- 476 477
%     478 <- 478
%     479 <- 479
%     480 <- 480 481 482
%     483 <- 483 485 486 487 489
%     484 <- 484
%     488 <- 488
%     490 <- 490 491 492 494
%     493 <- 493
%     495 <- 495 496
%     497 <- 497
%     498 <- 498
%     499 <- 499 500 501
%     502 <- 502 504 505 506 508
%     503 <- 503
%     507 <- 507
%     509 <- 509
%     510 <- 510 511
%     512 <- 512
%     513 <- 513
%     514 <- 514 515 516
%     517 <- 517 519 520 521 523
%     518 <- 518
%     522 <- 522
%     524 <- 524 525 526 528
%     527 <- 527
%     529 <- 529 530
%     531 <- 531
%     532 <- 532
%     533 <- 533 534 535
%     536 <- 536 538 539 540 542
%     537 <- 537
%     541 <- 541
%     543 <- 543 547
%     544 <- 544 545 546
%     548 <- 548 549
%     550 <- 550
%     551 <- 551
%     552 <- 552 553 554
%     555 <- 555 557 558 559 561
%     556 <- 556
%     560 <- 560
%     562 <- 562
%     563 <- 563 564
%     565 <- 565
%     566 <- 566
%     567 <- 567 568 569
%     570 <- 570 572 573 574 576
%     571 <- 571
%     575 <- 575
%     577 <- 577 581
%     578 <- 578 579 580
%     582 <- 582 583
%     584 <- 584
%     585 <- 585
%     586 <- 586 587 588
%     589 <- 589 591 592 593 595
%     590 <- 590
%     594 <- 594
%     596 <- 596 600
%     597 <- 597 598 599
%     601 <- 601 602
%     603 <- 603
%     604 <- 604
%     605 <- 605 606 607
%     608 <- 608 610 611 612 614
%     609 <- 609
%     613 <- 613
%     615 <- 615
%     616 <- 616 617
%     618 <- 618
%     619 <- 619
%     620 <- 620 621 622
%     623 <- 623 625 626 627 629
%     624 <- 624
%     628 <- 628
%     630 <- 630 634
%     631 <- 631 632 633
%     635 <- 635 636
%     637 <- 637
%     638 <- 638
%     639 <- 639 640 641
%     642 <- 642 644 645 646 648
%     643 <- 643
%     647 <- 647
%     649 <- 649 653
%     650 <- 650 651 652
%     654 <- 654 655
%     656 <- 656
%     657 <- 657
%     658 <- 658 659 660
%     661 <- 661 663 664 665 667
%     662 <- 662
%     666 <- 666
%     668 <- 668
%     669 <- 669 670
%     671 <- 671
%     672 <- 672
%     673 <- 673 674 675
%     676 <- 676 678 679 680 682
%     677 <- 677
%     681 <- 681
%     683 <- 683 687
%     684 <- 684 685 686
%     688 <- 688 689
%     690 <- 690
%     691 <- 691
%     692 <- 692 693 694
%     695 <- 695 697 698 699 701
%     696 <- 696
%     700 <- 700
%     702 <- 702 706
%     703 <- 703 704 705
%     707 <- 707 708
%     709 <- 709
%     710 <- 710
%     711 <- 711 712 713
%     714 <- 714 716 717 718 720
%     715 <- 715
%     719 <- 719
%     721 <- 721
%     722 <- 722 723
%     724 <- 724
%     725 <- 725
%     726 <- 726 727 728
%     729 <- 729 731 732 733 735
%     730 <- 730
%     734 <- 734
%     736 <- 736 740
%     737 <- 737 738 739
%     741 <- 741 742
%     743 <- 743
%     744 <- 744
%     745 <- 745 746 747
%     748 <- 748 750 751 752 754
%     749 <- 749
%     753 <- 753
%     755 <- 755 759
%     756 <- 756 757 758
%     760 <- 760 761
%     762 <- 762
%     763 <- 763
%     764 <- 764 765 766
%     767 <- 767 769 770 771 773
%     768 <- 768
%     772 <- 772
%     774 <- 774
%     775 <- 775 776
%     777 <- 777
%     778 <- 778
%     779 <- 779 780 781
%     782 <- 782 784 785 786 788
%     783 <- 783
%     787 <- 787
%     789 <- 789 793
%     790 <- 790 791 792
%     794 <- 794 795
%     796 <- 796
%     797 <- 797
%     798 <- 798 799 800
%     801 <- 801 803 804 805 807
%     802 <- 802
%     806 <- 806
%     808 <- 808 812
%     809 <- 809 810 811
%     813 <- 813 814
%     815 <- 815
%     816 <- 816
%     817 <- 817 818 819
%     820 <- 820 822 823 824 826
%     821 <- 821
%     825 <- 825
%     827 <- 827
%     828 <- 828 829
%     830 <- 830 832 833
%     831 <- 831
%     834 <- 834
%     835 <- 835 837 838 839 841
%     836 <- 836
%     840 <- 840
%     842 <- 842 846
%     843 <- 843 844 845
%     847 <- 847 848
%     849 <- 849
%     850 <- 850
%     851 <- 851 852 853
%     854 <- 854 856 857 858 860
%     855 <- 855
%     859 <- 859
%     861 <- 861 865
%     862 <- 862 863 864
%     866 <- 866 867
%     868 <- 868
%     869 <- 869
%     870 <- 870 871 872
%     873 <- 873 875 876 877 879
%     874 <- 874
%     878 <- 878
%     880 <- 880
%     881 <- 881 882
%     883 <- 883
%     884 <- 884
%     885 <- 885 886 887
%     888 <- 888 890 891 892 894
%     889 <- 889
%     893 <- 893
%     895 <- 895 896 897 899
%     898 <- 898
%     900 <- 900 901
%     902 <- 902
%     903 <- 903
%     904 <- 904 905 906
%     907 <- 907 909 910 911 913
%     908 <- 908
%     912 <- 912
%     914 <- 914 915 916 918
%     917 <- 917
%     919 <- 919 920
%     921 <- 921
%     922 <- 922
%     923 <- 923 924 925
%     926 <- 926 928 929 930 932
%     927 <- 927
%     931 <- 931
%     933 <- 933
%     934 <- 934 935
%     936 <- 936
%     937 <- 937
%     938 <- 938 939 940
%     941 <- 941 943 944 945 947
%     942 <- 942
%     946 <- 946
%     948 <- 948 949 950 952
%     951 <- 951
%     953 <- 953 954
%     955 <- 955
%     956 <- 956
%     957 <- 957 958 959
%     960 <- 960 962 963 964 966
%     961 <- 961
%     965 <- 965
%     967 <- 967 968 969 971
%     970 <- 970
%     972 <- 972 973
%     974 <- 974
%     975 <- 975
%     976 <- 976 977 978
%     979 <- 979 981 982 983 985
%     980 <- 980
%     984 <- 984
%     986 <- 986
%     987 <- 987 988
%     989 <- 989 991 992
%     990 <- 990
%     993 <- 993
%     994 <- 994 996 997 998 1000
%     995 <- 995
%     999 <- 999
%     1001 <- 1001 1005
%     1002 <- 1002 1003 1004
%     1006 <- 1006 1007
%     1008 <- 1008 1010 1011
%     1009 <- 1009
%     1012 <- 1012
%     1013 <- 1013 1015 1016 1017 1019
%     1014 <- 1014
%     1018 <- 1018
%     1020 <- 1020 1021 1024
%     1022 <- 1022 1023
%     1025 <- 1025 1026
%     1027 <- 1027 1029 1030
%     1028 <- 1028
%     1031 <- 1031
%     1032 <- 1032 1034 1035 1036 1038
%     1033 <- 1033
%     1037 <- 1037
%     1039 <- 1039
%     1040 <- 1040 1041
%     1042 <- 1042 1044 1045
%     1043 <- 1043
%     1046 <- 1046
%     1047 <- 1047 1049 1050 1051 1053
%     1048 <- 1048
%     1052 <- 1052
%     1054 <- 1054 1055 1056 1058
%     1057 <- 1057
%     1059 <- 1059 1060
%     1061 <- 1061 1063 1064
%     1062 <- 1062
%     1065 <- 1065
%     1066 <- 1066 1068 1069 1070 1072
%     1067 <- 1067
%     1071 <- 1071
%     1073 <- 1073 1074 1075 1077
%     1076 <- 1076
%     1078 <- 1078 1079
%     1080 <- 1080 1082 1083
%     1081 <- 1081
%     1084 <- 1084
%     1085 <- 1085 1087 1088 1089 1091
%     1086 <- 1086
%     1090 <- 1090
%     1092 <- 1092
%     1093 <- 1093 1094
%     1095 <- 1095 1097 1098
%     1096 <- 1096
%     1099 <- 1099
%     1100 <- 1100 1102 1103 1104 1106
%     1101 <- 1101
%     1105 <- 1105
%     1107 <- 1107 1108 1109 1111
%     1110 <- 1110
%     1112 <- 1112 1113
%     1114 <- 1114 1116 1117
%     1115 <- 1115
%     1118 <- 1118
%     1119 <- 1119 1121 1122 1123 1125
%     1120 <- 1120
%     1124 <- 1124
%     1126 <- 1126 1130
%     1127 <- 1127 1128 1129
%     1131 <- 1131 1132
%     1133 <- 1133 1135 1136
%     1134 <- 1134
%     1137 <- 1137
%     1138 <- 1138 1140 1141 1142 1144
%     1139 <- 1139
%     1143 <- 1143
%     1145 <- 1145
%     1146 <- 1146 1147
%     1148 <- 1148 1150 1151
%     1149 <- 1149
%     1152 <- 1152
%     1153 <- 1153 1155 1156 1157 1159
%     1154 <- 1154
%     1158 <- 1158
%     1160 <- 1160 1161 1164
%     1162 <- 1162 1163
%     1165 <- 1165 1166
%     1167 <- 1167 1169 1170
%     1168 <- 1168
%     1171 <- 1171
%     1172 <- 1172 1174 1175 1176 1178
%     1173 <- 1173
%     1177 <- 1177
%     1179 <- 1179 1180 1183
%     1181 <- 1181 1182
%     1184 <- 1184 1185
%     1186 <- 1186 1188 1189
%     1187 <- 1187
%     1190 <- 1190
%     1191 <- 1191 1193 1194 1195 1197
%     1192 <- 1192
%     1196 <- 1196

function mpc = case1197_reduced
mpc.version = '2';
mpc.baseMVA = 1;

%% bus data
%	bus_i	type	Pd	Qd	Gs	Bs	area	Vm	Va	baseKV	zone	Vmax	Vmin
mpc.bus = [
	1	3	-0	-0	0	0	1	1	0	1	1	1.1	0.9;
	2	1	-0	-0	-7.1054273576010019e-15	-1.5099033134902129e-14	1	1	0	1	1	1.1	0.9;
	4	1	-0	-0	-1.7763568394002505e-15	2.6645352591003757e-15	1	1	0	1	1	1.1	0.9;
	7	1	-0	-0	-1.0116148370375999e-15	5.2735593669694936e-16	1	1	0	1	1	1.1	0.9;
	9	1	-0	-0	-4.4408920985006262e-16	0	1	1	0	1	1	1.1	0.9;
	10	1	-0	-0	1.0340578220080499e-16	-4.8572257327350599e-17	1	1	0	1	1	1.1	0.9;
	11	1	-0	-0	1.0340578220080499e-16	-4.8572257327350599e-17	1	1	0	1	1	1.1	0.9;
	12	1	-0	-0	1.0340578220080499e-16	-4.8572257327350599e-17	1	1	0	1	1	1.1	0.9;
	13	1	-0	-0	1.0340578220080499e-16	-4.8572257327350599e-17	1	1	0	1	1	1.1	0.9;
	14	1	-0	-0	-1.8423847517046177e-15	1.3253287356462806e-15	1	1	0	1	1	1.1	0.9;
	16	1	-0	-0	-3.4068342764925763e-16	6.1756155744774333e-16	1	1	0	1	1	1.1	0.9;
	17	1	-0	-0	-1.8423847517046177e-15	1.3253287356462806e-15	1	1	0	1	1	1.1	0.9;
	19	1	-0	-0	1.0340578220080499e-16	3.9551695252271202e-16	1	1	0	1	1	1.1	0.9;
	20	1	-0	-0	-2.2864739615546803e-15	1.7694179454963432e-15	1	1	0	1	1	1.1	0.9;
	23	1	-0	-0	1.0340578220080499e-16	-4.9266146717741321e-16	1	1	0	1	1	1.1	0.9;
	24	1	-0	-0	5.474949920508676e-16	3.9551695252271202e-16	1	1	0	1	1	1.1	0.9;
	25	1	-0	-0	1.0340578220080499e-16	3.9551695252271202e-16	1	1	0	1	1	1.1	0.9;
	26	1	-0	-0	1.0340578220080499e-16	3.9551695252271202e-16	1	1	0	1	1	1.1	0.9;
	27	1	-0	-0	-2.2864739615546803e-15	1.7694179454963432e-15	1	1	0	1	1	1.1	0.9;
	29	1	-0	-0	1.8797626216010555e-15	-4.8572257327350599e-17	1	1	0	1	1	1.1	0.9;
	30	1	-0	-0	-9.5420633200449245e-16	1.1032841307212493e-15	1	1	0	1	1	1.1	0.9;
	32	1	1.5e-05	4.9302615776829499e-06	2.7755575615628914e-17	-1.3877787807814457e-17	1	1	0	1	1	1.1	0.9;
	33	1	3.0000000000000001e-05	9.8605231553658997e-06	6.9388939039072284e-18	-1.7347234759768071e-18	1	1	0	1	1	1.1	0.9;
	35	1	4.5000000000000003e-05	1.4790784733048849e-05	6.9388939039072284e-18	-5.2041704279304213e-18	1	1	0	1	1	1.1	0.9;
	36	1	1.5e-05	4.9302615776829499e-06	0	0	1	1	0	1	1	1.1	0.9;
	39	1	1.5e-05	4.9302615776829499e-06	-3.4694469519536142e-18	-5.2041704279304213e-18	1	1	0	1	1	1.1	0.9;
	40	1	7.5000000000000007e-05	2.465130788841475e-05	1.5483491225265489e-15	2.1654227889966737e-16	1	1	0	1	1	1.1	0.9;
	41	1	1.5e-05	4.9302615776829499e-06	0	0	1	1	0	1	1	1.1	0.9;
	45	1	1.5e-05	4.9302615776829499e-06	4.6187012547882489e-17	2.2971533529536625e-17	1	1	0	1	1	1.1	0.9;
	47	1	6.0000000000000002e-05	1.9721046310731799e-05	4.8572257327350599e-17	-1.0408340855860843e-17	1	1	0	1	1	1.1	0.9;
	50	1	1.5e-05	4.9302615776829499e-06	3.903127820947816e-18	-1.3010426069826053e-18	1	1	0	1	1	1.1	0.9;
	52	1	3.0000000000000001e-05	9.8605231553658997e-06	6.9388939039072284e-18	-1.7347234759768071e-18	1	1	0	1	1	1.1	0.9;
	54	1	4.5000000000000003e-05	1.4790784733048849e-05	6.9388939039072284e-18	-5.2041704279304213e-18	1	1	0	1	1	1.1	0.9;
	55	1	1.5e-05	4.9302615776829499e-06	0	0	1	1	0	1	1	1.1	0.9;
	58	1	1.5e-05	4.9302615776829499e-06	-3.4694469519536142e-18	-5.2041704279304213e-18	1	1	0	1	1	1.1	0.9;
	59	1	7.5000000000000007e-05	2.465130788841475e-05	1.5483491225265489e-15	2.1654227889966737e-16	1	1	0	1	1	1.1	0.9;
	60	1	1.5e-05	4.9302615776829499e-06	0	0	1	1	0	1	1	1.1	0.9;
	64	1	1.5e-05	4.9302615776829499e-06	4.6187012547882489e-17	2.2971533529536625e-17	1	1	0	1	1	1.1	0.9;
	66	1	4.5000000000000003e-05	1.4790784733048849e-05	3.4694469519536142e-17	-1.7347234759768071e-18	1	1	0	1	1	1.1	0.9;
	68	1	3.0000000000000001e-05	9.8605231553658997e-06	-6.9388939039072284e-18	4.3368086899420177e-19	1	1	0	1	1	1.1	0.9;
	71	1	3.0000000000000001e-05	9.8605231553658997e-06	6.9388939039072284e-18	-1.7347234759768071e-18	1	1	0	1	1	1.1	0.9;
	73	1	4.5000000000000003e-05	1.4790784733048849e-05	6.9388939039072284e-18	-5.2041704279304213e-18	1	1	0	1	1	1.1	0.9;
	74	1	1.5e-05	4.9302615776829499e-06	0	0	1	1	0	1	1	1.1	0.9;
	77	1	1.5e-05	4.9302615776829499e-06	6.9388939039072284e-18	-5.2041704279304213e-18	1	1	0	1	1	1.1	0.9;
	78	1	7.5000000000000007e-05	2.465130788841475e-05	1.5483491225265489e-15	2.1654227889966737e-16	1	1	0	1	1	1.1	0.9;
	79	1	1.5e-05	4.9302615776829499e-06	0	0	1	1	0	1	1	1.1	0.9;
	83	1	1.5e-05	4.9302615776829499e-06	4.6187012547882489e-17	2.2971533529536625e-17	1	1	0	1	1	1.1	0.9;
	85	1	1.5e-05	4.9302615776829499e-06	2.7755575615628914e-17	-1.3877787807814457e-17	1	1	0	1	1	1.1	0.9;
	86	1	3.0000000000000001e-05	9.8605231553658997e-06	6.9388939039072284e-18	-1.7347234759768071e-18	1	1	0	1	1	1.1	0.9;
	88	1	1.5e-05	4.9302615776829499e-06	0	0	1	1	0	1	1	1.1	0.9;
	89	1	1.5e-05	4.9302615776829499e-06	0	0	1	1	0	1	1	1.1	0.9;
	90	1	4.5000000000000003e-05	1.4790784733048849e-05	-1.7347234759768071e-17	7.8062556418956319e-18	1	1	0	1	1	1.1	0.9;
	93	1	7.5000000000000007e-05	2.465130788841475e-05	1.5344713347187344e-15	2.234811728035746e-16	1	1	0	1	1	1.1	0.9;
	94	1	1.5e-05	4.9302615776829499e-06	0	0	1	1	0	1	1	1.1	0.9;
	98	1	1.5e-05	4.9302615776829499e-06	4.6187012547882489e-17	2.2971533529536625e-17	1	1	0	1	1	1.1	0.9;
	100	1	6.0000000000000002e-05	1.9721046310731799e-05	4.8572257327350599e-17	-1.0408340855860843e-17	1	1	0	1	1	1.1	0.9;
	103	1	1.5e-05	4.9302615776829499e-06	3.903127820947816e-18	-1.3010426069826053e-18	1	1	0	1	1	1.1	0.9;
	105	1	3.0000000000000001e-05	9.8605231553658997e-06	6.9388939039072284e-18	-1.7347234759768071e-18	1	1	0	1	1	1.1	0.9;
	107	1	4.5000000000000003e-05	1.4790784733048849e-05	6.9388939039072284e-18	-5.2041704279304213e-18	1	1	0	1	1	1.1	0.9;
	108	1	1.5e-05	4.9302615776829499e-06	0	0	1	1	0	1	1	1.1	0.9;
	111	1	1.5e-05	4.9302615776829499e-06	-3.4694469519536142e-18	-5.2041704279304213e-18	1	1	0	1	1	1.1	0.9;
	112	1	7.5000000000000007e-05	2.465130788841475e-05	1.5483491225265489e-15	2.1654227889966737e-16	1	1	0	1	1	1.1	0.9;
	113	1	1.5e-05	4.9302615776829499e-06	0	0	1	1	0	1	1	1.1	0.9;
	117	1	1.5e-05	4.9302615776829499e-06	4.6187012547882489e-17	2.2971533529536625e-17	1	1	0	1	1	1.1	0.9;
	119	1	6.0000000000000002e-05	1.9721046310731799e-05	4.8572257327350599e-17	-1.0408340855860843e-17	1	1	0	1	1	1.1	0.9;
	122	1	1.5e-05	4.9302615776829499e-06	3.903127820947816e-18	-1.3010426069826053e-18	1	1	0	1	1	1.1	0.9;
	124	1	3.0000000000000001e-05	9.8605231553658997e-06	6.9388939039072284e-18	-1.7347234759768071e-18	1	1	0	1	1	1.1	0.9;
	126	1	4.5000000000000003e-05	1.4790784733048849e-05	6.9388939039072284e-18	-5.2041704279304213e-18	1	1	0	1	1	1.1	0.9;
	127	1	1.5e-05	4.9302615776829499e-06	0	0	1	1	0	1	1	1.1	0.9;
	130	1	1.5e-05	4.9302615776829499e-06	-3.4694469519536142e-18	-5.2041704279304213e-18	1	1	0	1	1	1.1	0.9;
	131	1	7.5000000000000007e-05	2.465130788841475e-05	1.5483491225265489e-15	2.1654227889966737e-16	1	1	0	1	1	1.1	0.9;
	132	1	1.5e-05	4.9302615776829499e-06	0	0	1	1	0	1	1	1.1	0.9;
	136	1	1.5e-05	4.9302615776829499e-06	4.6187012547882489e-17	2.2971533529536625e-17	1	1	0	1	1	1.1	0.9;
	138	1	1.5e-05	4.9302615776829499e-06	2.7755575615628914e-17	-1.3877787807814457e-17	1	1	0	1	1	1.1	0.9;
	139	1	3.0000000000000001e-05	9.8605231553658997e-06	6.9388939039072284e-18	-1.7347234759768071e-18	1	1	0	1	1	1.1	0.9;
	141	1	4.5000000000000003e-05	1.4790784733048849e-05	6.9388939039072284e-18	-5.2041704279304213e-18	1	1	0	1	1	1.1	0.9;
	142	1	1.5e-05	4.9302615776829499e-06	0	0	1	1	0	1	1	1.1	0.9;
	145	1	1.5e-05	4.9302615776829499e-06	-3.4694469519536142e-18	-5.2041704279304213e-18	1	1	0	1	1	1.1	0.9;
	146	1	7.5000000000000007e-05	2.465130788841475e-05	1.5483491225265489e-15	2.1654227889966737e-16	1	1	0	1	1	1.1	0.9;
	147	1	1.5e-05	4.9302615776829499e-06	0	0	1	1	0	1	1	1.1	0.9;
	151	1	1.5e-05	4.9302615776829499e-06	4.6187012547882489e-17	2.2971533529536625e-17	1	1	0	1	1	1.1	0.9;
	153	1	6.0000000000000002e-05	1.9721046310731799e-05	4.8572257327350599e-17	-1.0408340855860843e-17	1	1	0	1	1	1.1	0.9;
	156	1	1.5e-05	4.9302615776829499e-06	3.903127820947816e-18	-1.3010426069826053e-18	1	1	0	1	1	1.1	0.9;
	158	1	3.0000000000000001e-05	9.8605231553658997e-06	6.9388939039072284e-18	-1.7347234759768071e-18	1	1	0	1	1	1.1	0.9;
	160	1	4.5000000000000003e-05	1.4790784733048849e-05	6.9388939039072284e-18	-5.2041704279304213e-18	1	1	0	1	1	1.1	0.9;
	161	1	1.5e-05	4.9302615776829499e-06	0	0	1	1	0	1	1	1.1	0.9;
	164	1	1.5e-05	4.9302615776829499e-06	-3.4694469519536142e-18	-5.2041704279304213e-18	1	1	0	1	1	1.1	0.9;
	165	1	7.5000000000000007e-05	2.465130788841475e-05	1.5483491225265489e-15	2.1654227889966737e-16	1	1	0	1	1	1.1	0.9;
	166	1	1.5e-05	4.9302615776829499e-06	0	0	1	1	0	1	1	1.1	0.9;
	170	1	1.5e-05	4.9302615776829499e-06	4.6187012547882489e-17	2.2971533529536625e-17	1	1	0	1	1	1.1	0.9;
	172	1	6.0000000000000002e-05	1.9721046310731799e-05	4.8572257327350599e-17	-1.0408340855860843e-17	1	1	0	1	1	1.1	0.9;
	175	1	1.5e-05	4.9302615776829499e-06	3.903127820947816e-18	-1.3010426069826053e-18	1	1	0	1	1	1.1	0.9;
	177	1	3.0000000000000001e-05	9.8605231553658997e-06	6.9388939039072284e-18	-1.7347234759768071e-18	1	1	0	1	1	1.1	0.9;
	179	1	4.5000000000000003e-05	1.4790784733048849e-05	6.9388939039072284e-18	-5.2041704279304213e-18	1	1	0	1	1	1.1	0.9;
	180	1	1.5e-05	4.9302615776829499e-06	0	0	1	1	0	1	1	1.1	0.9;
	183	1	1.5e-05	4.9302615776829499e-06	-3.4694469519536142e-18	-5.2041704279304213e-18	1	1	0	1	1	1.1	0.9;
	184	1	7.5000000000000007e-05	2.465130788841475e-05	1.5483491225265489e-15	2.1654227889966737e-16	1	1	0	1	1	1.1	0.9;
	185	1	1.5e-05	4.9302615776829499e-06	0	0	1	1	0	1	1	1.1	0.9;
	189	1	1.5e-05	4.9302615776829499e-06	4.6187012547882489e-17	2.2971533529536625e-17	1	1	0	1	1	1.1	0.9;
	191	1	1.5e-05	4.9302615776829499e-06	2.7755575615628914e-17	-1.3877787807814457e-17	1	1	0	1	1	1.1	0.9;
	192	1	3.0000000000000001e-05	9.8605231553658997e-06	6.9388939039072284e-18	-1.7347234759768071e-18	1	1	0	1	1	1.1	0.9;
	194	1	4.5000000000000003e-05	1.4790784733048849e-05	6.9388939039072284e-18	-5.2041704279304213e-18	1	1	0	1	1	1.1	0.9;
	195	1	1.5e-05	4.9302615776829499e-06	0	0	1	1	0	1	1	1.1	0.9;
	198	1	1.5e-05	4.9302615776829499e-06	-3.4694469519536142e-18	-5.2041704279304213e-18	1	1	0	1	1	1.1	0.9;
	199	1	7.5000000000000007e-05	2.465130788841475e-05	1.5584322027306641e-15	-8.0380038562644085e-17	1	1	0	1	1	1.1	0.9;
	200	1	1.5e-05	4.9302615776829499e-06	0	0	1	1	0	1	1	1.1	0.9;
	204	1	1.5e-05	4.9302615776829499e-06	4.9548039282587553e-17	1.3769367590565906e-17	1	1	0	1	1	1.1	0.9;
	206	1	4.5000000000000003e-05	1.4790784733048849e-05	3.4694469519536142e-17	-1.7347234759768071e-18	1	1	0	1	1	1.1	0.9;
	208	1	3.0000000000000001e-05	9.8605231553658997e-06	-6.9388939039072284e-18	4.3368086899420177e-19	1	1	0	1	1	1.1	0.9;
	211	1	3.0000000000000001e-05	9.8605231553658997e-06	6.9388939039072284e-18	-1.7347234759768071e-18	1	1	0	1	1	1.1	0.9;
	213	1	4.5000000000000003e-05	1.4790784733048849e-05	6.9388939039072284e-18	-5.2041704279304213e-18	1	1	0	1	1	1.1	0.9;
	214	1	1.5e-05	4.9302615776829499e-06	0	0	1	1	0	1	1	1.1	0.9;
	217	1	1.5e-05	4.9302615776829499e-06	-3.4694469519536142e-18	-5.2041704279304213e-18	1	1	0	1	1	1.1	0.9;
	218	1	7.5000000000000007e-05	2.465130788841475e-05	1.5483491225265489e-15	2.1654227889966737e-16	1	1	0	1	1	1.1	0.9;
	219	1	1.5e-05	4.9302615776829499e-06	0	0	1	1	0	1	1	1.1	0.9;
	223	1	1.5e-05	4.9302615776829499e-06	4.6187012547882489e-17	2.2971533529536625e-17	1	1	0	1	1	1.1	0.9;
	225	1	3.0000000000000001e-05	9.8605231553658997e-06	1.3877787807814457e-17	-1.7347234759768071e-18	1	1	0	1	1	1.1	0.9;
	226	1	4.5000000000000003e-05	1.4790784733048849e-05	-3.4694469519536142e-18	4.3368086899420177e-19	1	1	0	1	1	1.1	0.9;
	230	1	3.0000000000000001e-05	9.8605231553658997e-06	6.9388939039072284e-18	-1.7347234759768071e-18	1	1	0	1	1	1.1	0.9;
	232	1	4.5000000000000003e-05	1.4790784733048849e-05	6.9388939039072284e-18	-5.2041704279304213e-18	1	1	0	1	1	1.1	0.9;
	233	1	1.5e-05	4.9302615776829499e-06	0	0	1	1	0	1	1	1.1	0.9;
	236	1	1.5e-05	4.9302615776829499e-06	-3.4694469519536142e-18	-5.2041704279304213e-18	1	1	0	1	1	1.1	0.9;
	237	1	7.5000000000000007e-05	2.465130788841475e-05	1.5483491225265489e-15	2.1654227889966737e-16	1	1	0	1	1	1.1	0.9;
	238	1	1.5e-05	4.9302615776829499e-06	0	0	1	1	0	1	1	1.1	0.9;
	242	1	1.5e-05	4.9302615776829499e-06	4.6187012547882489e-17	2.2971533529536625e-17	1	1	0	1	1	1.1	0.9;
	244	1	1.5e-05	4.9302615776829499e-06	2.7755575615628914e-17	-1.3877787807814457e-17	1	1	0	1	1	1.1	0.9;
	245	1	3.0000000000000001e-05	9.8605231553658997e-06	6.9388939039072284e-18	-1.7347234759768071e-18	1	1	0	1	1	1.1	0.9;
	247	1	4.5000000000000003e-05	1.4790784733048849e-05	6.9388939039072284e-18	-5.2041704279304213e-18	1	1	0	1	1	1.1	0.9;
	248	1	1.5e-05	4.9302615776829499e-06	0	0	1	1	0	1	1	1.1	0.9;
	251	1	1.5e-05	4.9302615776829499e-06	-3.4694469519536142e-18	-5.2041704279304213e-18	1	1	0	1	1	1.1	0.9;
	252	1	7.5000000000000007e-05	2.465130788841475e-05	1.5483491225265489e-15	2.1654227889966737e-16	1	1	0	1	1	1.1	0.9;
	253	1	1.5e-05	4.9302615776829499e-06	0	0	1	1	0	1	1	1.1	0.9;
	257	1	1.5e-05	4.9302615776829499e-06	4.6187012547882489e-17	2.2971533529536625e-17	1	1	0	1	1	1.1	0.9;
	259	1	3.0000000000000001e-05	9.8605231553658997e-06	1.3877787807814457e-17	-1.7347234759768071e-18	1	1	0	1	1	1.1	0.9;
	260	1	4.5000000000000003e-05	1.4790784733048849e-05	-3.4694469519536142e-18	4.3368086899420177e-19	1	1	0	1	1	1.1	0.9;
	264	1	3.0000000000000001e-05	9.8605231553658997e-06	6.9388939039072284e-18	-1.7347234759768071e-18	1	1	0	1	1	1.1	0.9;
	266	1	4.5000000000000003e-05	1.4790784733048849e-05	6.9388939039072284e-18	-5.2041704279304213e-18	1	1	0	1	1	1.1	0.9;
	267	1	1.5e-05	4.9302615776829499e-06	0	0	1	1	0	1	1	1.1	0.9;
	270	1	1.5e-05	4.9302615776829499e-06	-3.4694469519536142e-18	-5.2041704279304213e-18	1	1	0	1	1	1.1	0.9;
	271	1	7.5000000000000007e-05	2.465130788841475e-05	1.5483491225265489e-15	2.1654227889966737e-16	1	1	0	1	1	1.1	0.9;
	272	1	1.5e-05	4.9302615776829499e-06	0	0	1	1	0	1	1	1.1	0.9;
	276	1	1.5e-05	4.9302615776829499e-06	4.6187012547882489e-17	2.2971533529536625e-17	1	1	0	1	1	1.1	0.9;
	278	1	6.0000000000000002e-05	1.9721046310731799e-05	4.8572257327350599e-17	-1.0408340855860843e-17	1	1	0	1	1	1.1	0.9;
	281	1	1.5e-05	4.9302615776829499e-06	3.903127820947816e-18	-1.3010426069826053e-18	1	1	0	1	1	1.1	0.9;
	283	1	3.0000000000000001e-05	9.8605231553658997e-06	6.9388939039072284e-18	-1.7347234759768071e-18	1	1	0	1	1	1.1	0.9;
	285	1	4.5000000000000003e-05	1.4790784733048849e-05	6.9388939039072284e-18	-5.2041704279304213e-18	1	1	0	1	1	1.1	0.9;
	286	1	1.5e-05	4.9302615776829499e-06	0	0	1	1	0	1	1	1.1	0.9;
	289	1	1.5e-05	4.9302615776829499e-06	-3.4694469519536142e-18	-5.2041704279304213e-18	1	1	0	1	1	1.1	0.9;
	290	1	7.5000000000000007e-05	2.465130788841475e-05	1.5483491225265489e-15	2.1654227889966737e-16	1	1	0	1	1	1.1	0.9;
	291	1	1.5e-05	4.9302615776829499e-06	0	0	1	1	0	1	1	1.1	0.9;
	295	1	1.5e-05	4.9302615776829499e-06	4.6187012547882489e-17	2.2971533529536625e-17	1	1	0	1	1	1.1	0.9;
	297	1	1.5e-05	4.9302615776829499e-06	2.7755575615628914e-17	1.3877787807814457e-17	1	1	0	1	1	1.1	0.9;
	298	1	3.0000000000000001e-05	9.8605231553658997e-06	6.9388939039072284e-18	-1.7347234759768071e-18	1	1	0	1	1	1.1	0.9;
	300	1	1.5e-05	4.9302615776829499e-06	0	0	1	1	0	1	1	1.1	0.9;
	301	1	1.5e-05	4.9302615776829499e-06	0	0	1	1	0	1	1	1.1	0.9;
	302	1	4.5000000000000003e-05	1.4790784733048849e-05	-1.7347234759768071e-17	7.8062556418956319e-18	1	1	0	1	1	1.1	0.9;
	305	1	7.5000000000000007e-05	2.465130788841475e-05	1.5344713347187344e-15	2.234811728035746e-16	1	1	0	1	1	1.1	0.9;
	306	1	1.5e-05	4.9302615776829499e-06	0	0	1	1	0	1	1	1.1	0.9;
	310	1	1.5e-05	4.9302615776829499e-06	4.6187012547882489e-17	2.2971533529536625e-17	1	1	0	1	1	1.1	0.9;
	312	1	6.0000000000000002e-05	1.9721046310731799e-05	4.8572257327350599e-17	-1.0408340855860843e-17	1	1	0	1	1	1.1	0.9;
	315	1	1.5e-05	4.9302615776829499e-06	3.903127820947816e-18	-1.3010426069826053e-18	1	1	0	1	1	1.1	0.9;
	317	1	3.0000000000000001e-05	9.8605231553658997e-06	6.9388939039072284e-18	-1.7347234759768071e-18	1	1	0	1	1	1.1	0.9;
	319	1	4.5000000000000003e-05	1.4790784733048849e-05	6.9388939039072284e-18	-5.2041704279304213e-18	1	1	0	1	1	1.1	0.9;
	320	1	1.5e-05	4.9302615776829499e-06	0	0	1	1	0	1	1	1.1	0.9;
	323	1	1.5e-05	4.9302615776829499e-06	-3.4694469519536142e-18	-5.2041704279304213e-18	1	1	0	1	1	1.1	0.9;
	324	1	7.5000000000000007e-05	2.465130788841475e-05	1.5584322027306641e-15	-8.0380038562644085e-17	1	1	0	1	1	1.1	0.9;
	325	1	1.5e-05	4.9302615776829499e-06	0	0	1	1	0	1	1	1.1	0.9;
	329	1	1.5e-05	4.9302615776829499e-06	4.9548039282587553e-17	1.3769367590565906e-17	1	1	0	1	1	1.1	0.9;
	331	1	6.0000000000000002e-05	1.9721046310731799e-05	4.8572257327350599e-17	-1.0408340855860843e-17	1	1	0	1	1	1.1	0.9;
	334	1	1.5e-05	4.9302615776829499e-06	3.903127820947816e-18	-1.3010426069826053e-18	1	1	0	1	1	1.1	0.9;
	336	1	3.0000000000000001e-05	9.8605231553658997e-06	6.9388939039072284e-18	-1.7347234759768071e-18	1	1	0	1	1	1.1	0.9;
	338	1	4.5000000000000003e-05	1.4790784733048849e-05	6.9388939039072284e-18	-5.2041704279304213e-18	1	1	0	1	1	1.1	0.9;
	339	1	1.5e-05	4.9302615776829499e-06	0	0	1	1	0	1	1	1.1	0.9;
	342	1	1.5e-05	4.9302615776829499e-06	-3.4694469519536142e-18	-5.2041704279304213e-18	1	1	0	1	1	1.1	0.9;
	343	1	7.5000000000000007e-05	2.465130788841475e-05	1.5483491225265489e-15	2.1654227889966737e-16	1	1	0	1	1	1.1	0.9;
	344	1	1.5e-05	4.9302615776829499e-06	0	0	1	1	0	1	1	1.1	0.9;
	348	1	1.5e-05	4.9302615776829499e-06	4.6187012547882489e-17	2.2971533529536625e-17	1	1	0	1	1	1.1	0.9;
	350	1	1.5e-05	4.9302615776829499e-06	2.7755575615628914e-17	-1.3877787807814457e-17	1	1	0	1	1	1.1	0.9;
	351	1	3.0000000000000001e-05	9.8605231553658997e-06	6.9388939039072284e-18	-1.7347234759768071e-18	1	1	0	1	1	1.1	0.9;
	353	1	1.5e-05	4.9302615776829499e-06	0	0	1	1	0	1	1	1.1	0.9;
	354	1	1.5e-05	4.9302615776829499e-06	0	0	1	1	0	1	1	1.1	0.9;
	355	1	4.5000000000000003e-05	1.4790784733048849e-05	-1.7347234759768071e-17	7.8062556418956319e-18	1	1	0	1	1	1.1	0.9;
	358	1	7.5000000000000007e-05	2.465130788841475e-05	1.5344713347187344e-15	2.234811728035746e-16	1	1	0	1	1	1.1	0.9;
	359	1	1.5e-05	4.9302615776829499e-06	0	0	1	1	0	1	1	1.1	0.9;
	363	1	1.5e-05	4.9302615776829499e-06	4.6187012547882489e-17	2.2971533529536625e-17	1	1	0	1	1	1.1	0.9;
	365	1	6.0000000000000002e-05	1.9721046310731799e-05	4.8572257327350599e-17	-1.0408340855860843e-17	1	1	0	1	1	1.1	0.9;
	368	1	1.5e-05	4.9302615776829499e-06	3.903127820947816e-18	-1.3010426069826053e-18	1	1	0	1	1	1.1	0.9;
	370	1	3.0000000000000001e-05	9.8605231553658997e-06	6.9388939039072284e-18	-1.7347234759768071e-18	1	1	0	1	1	1.1	0.9;
	372	1	1.5e-05	4.9302615776829499e-06	0	0	1	1	0	1	1	1.1	0.9;
	373	1	1.5e-05	4.9302615776829499e-06	0	0	1	1	0	1	1	1.1	0.9;
	374	1	4.5000000000000003e-05	1.4790784733048849e-05	-1.7347234759768071e-17	7.8062556418956319e-18	1	1	0	1	1	1.1	0.9;
	377	1	7.5000000000000007e-05	2.465130788841475e-05	1.5344713347187344e-15	2.234811728035746e-16	1	1	0	1	1	1.1	0.9;
	378	1	1.5e-05	4.9302615776829499e-06	0	0	1	1	0	1	1	1.1	0.9;
	382	1	1.5e-05	4.9302615776829499e-06	4.6187012547882489e-17	2.2971533529536625e-17	1	1	0	1	1	1.1	0.9;
	384	1	6.0000000000000002e-05	1.9721046310731799e-05	4.8572257327350599e-17	-1.0408340855860843e-17	1	1	0	1	1	1.1	0.9;
	387	1	1.5e-05	4.9302615776829499e-06	3.903127820947816e-18	-1.3010426069826053e-18	1	1	0	1	1	1.1	0.9;
	389	1	3.0000000000000001e-05	9.8605231553658997e-06	6.9388939039072284e-18	-1.7347234759768071e-18	1	1	0	1	1	1.1	0.9;
	391	1	4.5000000000000003e-05	1.4790784733048849e-05	6.9388939039072284e-18	-5.2041704279304213e-18	1	1	0	1	1	1.1	0.9;
	392	1	1.5e-05	4.9302615776829499e-06	0	0	1	1	0	1	1	1.1	0.9;
	395	1	1.5e-05	4.9302615776829499e-06	-3.4694469519536142e-18	-5.2041704279304213e-18	1	1	0	1	1	1.1	0.9;
...
];

%% generator data
%	bus	Pg	Qg	Qmax	Qmin	Vg	mBase	status	Pmax	Pmin
mpc.gen = [
	1	0	0	9999	-9999	1	1	1	9999	-9999;
];

%% branch data
%	fbus	tbus	r	x	b	rateA	rateB	rateC	ratio	angle	status	angmin	angmax
mpc.branch = [
	1	2	0.00039999999999999991	0.006899999999999999	0	0	0	0	0	0	1	-360	360;
	2	4	0.1366	0.085799999999999987	0	0	0	0	0	0	1	-360	360;
	2	29	0.052700000000000004	0.0028000000000000004	0	0	0	0	0	0	1	-360	360;
	4	7	0.5862999999999996	0.4302999999999999	0	0	0	0	0	0	1	-360	360;
	4	23	0.083900000000000002	0.083000000000000018	0	0	0	0	0	0	1	-360	360;
	7	9	0.51939999999999986	0.29259999999999992	0	0	0	0	0	0	1	-360	360;
	7	19	0.1633	0.14199999999999999	0	0	0	0	0	0	1	-360	360;
	7	986	0.42299999999999777	38.142000000000003	0	0	0	0	0	0	1	-360	360;
	9	10	0.25969999999999999	0.14629999999999999	0	0	0	0	0	0	1	-360	360;
	9	16	0.1633	0.14199999999999999	0	0	0	0	0	0	1	-360	360;
	10	11	0.25969999999999999	0.14629999999999999	0	0	0	0	0	0	1	-360	360;
	10	509	0.25969999999999999	38	0	0	0	0	0	0	1	-360	360;
	11	12	0.25969999999999999	0.14629999999999999	0	0	0	0	0	0	1	-360	360;
	11	562	0.25969999999999999	38	0	0	0	0	0	0	1	-360	360;
	12	13	0.25969999999999999	0.14629999999999999	0	0	0	0	0	0	1	-360	360;
	12	615	0.25969999999999999	38	0	0	0	0	0	0	1	-360	360;
	13	14	0.25969999999999999	0.14629999999999999	0	0	0	0	0	0	1	-360	360;
	13	668	0.25969999999999999	38	0	0	0	0	0	0	1	-360	360;
	14	721	0.25969999999999999	38	0	0	0	0	0	0	1	-360	360;
	14	774	0.51939999999999475	38.146299999999975	0	0	0	0	0	0	1	-360	360;
	16	17	0.25969999999999999	0.14629999999999999	0	0	0	0	0	0	1	-360	360;
	16	827	0.25969999999999999	38	0	0	0	0	0	0	1	-360	360;
	17	880	0.25969999999999999	38	0	0	0	0	0	0	1	-360	360;
	17	933	0.51939999999999475	38.146299999999975	0	0	0	0	0	0	1	-360	360;
	19	20	0.1633	0.14199999999999999	0	0	0	0	0	0	1	-360	360;
	19	350	0.25969999999999999	38	0	0	0	0	0	0	1	-360	360;
	20	403	0.25969999999999999	38	0	0	0	0	0	0	1	-360	360;
	20	456	0.51939999999999475	38.146299999999975	0	0	0	0	0	0	1	-360	360;
	23	24	0.083900000000000002	0.083000000000000018	0	0	0	0	0	0	1	-360	360;
	23	32	0.25969999999999999	38	0	0	0	0	0	0	1	-360	360;
	24	25	0.1633	0.14199999999999999	0	0	0	0	0	0	1	-360	360;
	24	85	0.25969999999999999	38	0	0	0	0	0	0	1	-360	360;
	25	26	0.1633	0.14199999999999999	0	0	0	0	0	0	1	-360	360;
	25	138	0.25969999999999999	38	0	0	0	0	0	0	1	-360	360;
	26	27	0.1633	0.14199999999999999	0	0	0	0	0	0	1	-360	360;
	26	191	0.25969999999999999	38	0	0	0	0	0	0	1	-360	360;
	27	244	0.25969999999999999	38	0	0	0	0	0	0	1	-360	360;
	27	297	0.51939999999999475	38.146299999999975	0	0	0	0	0	0	1	-360	360;
	29	30	0.052700000000000004	0.0028000000000000004	0	0	0	0	0	0	1	-360	360;
	29	1039	0.25969999999999999	38	0	0	0	0	0	0	1	-360	360;
	30	1092	0.25969999999999999	38	0	0	0	0	0	0	1	-360	360;
	30	1145	0.51939999999999475	38.146299999999975	0	0	0	0	0	0	1	-360	360;
	32	33	24.068190000000005	8.3970160000000025	0	0	0	0	0	0	1	-360	360;
	32	47	9.4643629999999987	3.5999419999999991	0	0	0	0	0	0	1	-360	360;
	32	66	9.4643629999999987	3.5999419999999991	0	0	0	0	0	0	1	-360	360;
	33	35	24.623522000000005	10.988184000000002	0	0	0	0	0	0	1	-360	360;
	35	36	450.74582700000013	44.952759000000015	0	0	0	0	0	0	1	-360	360;
	35	39	47.191743000000017	21.059196000000004	0	0	0	0	0	0	1	-360	360;
	39	40	30.211189000000005	13.481666000000002	0	0	0	0	0	0	1	-360	360;
	40	41	789.97067800000013	78.783562000000018	0	0	0	0	0	0	1	-360	360;
	40	45	1037.2254900000426	113.97639700003383	0	0	0	0	0	0	1	-360	360;
	47	50	312.58821800000044	63.869485000000047	0	0	0	0	0	0	1	-360	360;
	47	52	24.068190000000005	8.3970160000000025	0	0	0	0	0	0	1	-360	360;
	52	54	24.623522000000005	10.988184000000002	0	0	0	0	0	0	1	-360	360;
	54	55	450.74582700000013	44.952759000000015	0	0	0	0	0	0	1	-360	360;
	54	58	47.191743000000017	21.059196000000004	0	0	0	0	0	0	1	-360	360;
	58	59	30.211189000000005	13.481666000000002	0	0	0	0	0	0	1	-360	360;
	59	60	789.97067800000013	78.783562000000018	0	0	0	0	0	0	1	-360	360;
	59	64	1037.2254900000426	113.97639700003383	0	0	0	0	0	0	1	-360	360;
	66	68	131.22430499999999	45.782111	0	0	0	0	0	0	1	-360	360;
	66	71	24.068190000000005	8.3970160000000025	0	0	0	0	0	0	1	-360	360;
	71	73	24.623522000000005	10.988184000000002	0	0	0	0	0	0	1	-360	360;
	73	74	450.74582700000013	44.952759000000015	0	0	0	0	0	0	1	-360	360;
	73	77	47.191743000000017	21.059196000000004	0	0	0	0	0	0	1	-360	360;
	77	78	30.211189000000005	13.481666000000002	0	0	0	0	0	0	1	-360	360;
	78	79	789.97067800000013	78.783562000000018	0	0	0	0	0	0	1	-360	360;
	78	83	1037.2254900000426	113.97639700003383	0	0	0	0	0	0	1	-360	360;
	85	86	24.068190000000005	8.3970160000000025	0	0	0	0	0	0	1	-360	360;
	85	100	9.4643629999999987	3.5999419999999991	0	0	0	0	0	0	1	-360	360;
	85	119	9.4643629999999987	3.5999419999999991	0	0	0	0	0	0	1	-360	360;
	86	88	24.623522000000005	10.988184000000002	0	0	0	0	0	0	1	-360	360;
	88	89	450.74582700000013	44.952759000000015	0	0	0	0	0	0	1	-360	360;
	88	90	25.757084999999996	11.494033999999997	0	0	0	0	0	0	1	-360	360;
	90	93	51.645846999999982	23.046827999999994	0	0	0	0	0	0	1	-360	360;
	93	94	789.97067800000013	78.783562000000018	0	0	0	0	0	0	1	-360	360;
	93	98	1037.2254900000426	113.97639700003383	0	0	0	0	0	0	1	-360	360;
	100	103	312.58821800000044	63.869485000000047	0	0	0	0	0	0	1	-360	360;
	100	105	24.068190000000005	8.3970160000000025	0	0	0	0	0	0	1	-360	360;
	105	107	24.623522000000005	10.988184000000002	0	0	0	0	0	0	1	-360	360;
	107	108	450.74582700000013	44.952759000000015	0	0	0	0	0	0	1	-360	360;
	107	111	47.191743000000017	21.059196000000004	0	0	0	0	0	0	1	-360	360;
	111	112	30.211189000000005	13.481666000000002	0	0	0	0	0	0	1	-360	360;
	112	113	789.97067800000013	78.783562000000018	0	0	0	0	0	0	1	-360	360;
	112	117	1037.2254900000426	113.97639700003383	0	0	0	0	0	0	1	-360	360;
	119	122	312.58821800000044	63.869485000000047	0	0	0	0	0	0	1	-360	360;
	119	124	24.068190000000005	8.3970160000000025	0	0	0	0	0	0	1	-360	360;
	124	126	24.623522000000005	10.988184000000002	0	0	0	0	0	0	1	-360	360;
	126	127	450.74582700000013	44.952759000000015	0	0	0	0	0	0	1	-360	360;
	126	130	47.191743000000017	21.059196000000004	0	0	0	0	0	0	1	-360	360;
	130	131	30.211189000000005	13.481666000000002	0	0	0	0	0	0	1	-360	360;
	131	132	789.97067800000013	78.783562000000018	0	0	0	0	0	0	1	-360	360;
	131	136	1037.2254900000426	113.97639700003383	0	0	0	0	0	0	1	-360	360;
	138	139	24.068190000000005	8.3970160000000025	0	0	0	0	0	0	1	-360	360;
	138	153	9.4643629999999987	3.5999419999999991	0	0	0	0	0	0	1	-360	360;
	138	172	9.4643629999999987	3.5999419999999991	0	0	0	0	0	0	1	-360	360;
	139	141	24.623522000000005	10.988184000000002	0	0	0	0	0	0	1	-360	360;
	141	142	450.74582700000013	44.952759000000015	0	0	0	0	0	0	1	-360	360;
	141	145	47.191743000000017	21.059196000000004	0	0	0	0	0	0	1	-360	360;
	145	146	30.211189000000005	13.481666000000002	0	0	0	0	0	0	1	-360	360;
	146	147	789.97067800000013	78.783562000000018	0	0	0	0	0	0	1	-360	360;
	146	151	1037.2254900000426	113.97639700003383	0	0	0	0	0	0	1	-360	360;
	153	156	312.58821800000044	63.869485000000047	0	0	0	0	0	0	1	-360	360;
	153	158	24.068190000000005	8.3970160000000025	0	0	0	0	0	0	1	-360	360;
	158	160	24.623522000000005	10.988184000000002	0	0	0	0	0	0	1	-360	360;
	160	161	450.74582700000013	44.952759000000015	0	0	0	0	0	0	1	-360	360;
	160	164	47.191743000000017	21.059196000000004	0	0	0	0	0	0	1	-360	360;
	164	165	30.211189000000005	13.481666000000002	0	0	0	0	0	0	1	-360	360;
	165	166	789.97067800000013	78.783562000000018	0	0	0	0	0	0	1	-360	360;
	165	170	1037.2254900000426	113.97639700003383	0	0	0	0	0	0	1	-360	360;
	172	175	312.58821800000044	63.869485000000047	0	0	0	0	0	0	1	-360	360;
	172	177	24.068190000000005	8.3970160000000025	0	0	0	0	0	0	1	-360	360;
	177	179	24.623522000000005	10.988184000000002	0	0	0	0	0	0	1	-360	360;
	179	180	450.74582700000013	44.952759000000015	0	0	0	0	0	0	1	-360	360;
	179	183	47.191743000000017	21.059196000000004	0	0	0	0	0	0	1	-360	360;
	183	184	30.211189000000005	13.481666000000002	0	0	0	0	0	0	1	-360	360;
	184	185	789.97067800000013	78.783562000000018	0	0	0	0	0	0	1	-360	360;
	184	189	1037.2254900000426	113.97639700003383	0	0	0	0	0	0	1	-360	360;
	191	192	24.068190000000005	8.3970160000000025	0	0	0	0	0	0	1	-360	360;
	191	206	9.4643629999999987	3.5999419999999991	0	0	0	0	0	0	1	-360	360;
	191	225	9.4643629999999987	3.5999419999999991	0	0	0	0	0	0	1	-360	360;
	192	194	24.623522000000005	10.988184000000002	0	0	0	0	0	0	1	-360	360;
	194	195	450.74582700000013	44.952759000000015	0	0	0	0	0	0	1	-360	360;
	194	198	47.191743000000017	21.059196000000004	0	0	0	0	0	0	1	-360	360;
	198	199	30.211189000000005	13.481666000000002	0	0	0	0	0	0	1	-360	360;
	199	200	789.97067800000013	78.783562000000018	0	0	0	0	0	0	1	-360	360;
	199	204	1037.2254900000482	113.97639700002507	0	0	0	0	0	0	1	-360	360;
	206	208	131.22430499999999	45.782111	0	0	0	0	0	0	1	-360	360;
	206	211	24.068190000000005	8.3970160000000025	0	0	0	0	0	0	1	-360	360;
	211	213	24.623522000000005	10.988184000000002	0	0	0	0	0	0	1	-360	360;
	213	214	450.74582700000013	44.952759000000015	0	0	0	0	0	0	1	-360	360;
	213	217	47.191743000000017	21.059196000000004	0	0	0	0	0	0	1	-360	360;
	217	218	30.211189000000005	13.481666000000002	0	0	0	0	0	0	1	-360	360;
	218	219	789.97067800000013	78.783562000000018	0	0	0	0	0	0	1	-360	360;
	218	223	1037.2254900000426	113.97639700003383	0	0	0	0	0	0	1	-360	360;
	225	226	82.618470000000016	28.824294000000002	0	0	0	0	0	0	1	-360	360;
	225	230	24.068190000000005	8.3970160000000025	0	0	0	0	0	0	1	-360	360;
	230	232	24.623522000000005	10.988184000000002	0	0	0	0	0	0	1	-360	360;
	232	233	450.74582700000013	44.952759000000015	0	0	0	0	0	0	1	-360	360;
	232	236	47.191743000000017	21.059196000000004	0	0	0	0	0	0	1	-360	360;
	236	237	30.211189000000005	13.481666000000002	0	0	0	0	0	0	1	-360	360;
	237	238	789.97067800000013	78.783562000000018	0	0	0	0	0	0	1	-360	360;
	237	242	1037.2254900000426	113.97639700003383	0	0	0	0	0	0	1	-360	360;
	244	245	24.068190000000005	8.3970160000000025	0	0	0	0	0	0	1	-360	360;
	244	259	9.4643629999999987	3.5999419999999991	0	0	0	0	0	0	1	-360	360;
	244	278	9.4643629999999987	3.5999419999999991	0	0	0	0	0	0	1	-360	360;
	245	247	24.623522000000005	10.988184000000002	0	0	0	0	0	0	1	-360	360;
	247	248	450.74582700000013	44.952759000000015	0	0	0	0	0	0	1	-360	360;
	247	251	47.191743000000017	21.059196000000004	0	0	0	0	0	0	1	-360	360;
	251	252	30.211189000000005	13.481666000000002	0	0	0	0	0	0	1	-360	360;
	252	253	789.97067800000013	78.783562000000018	0	0	0	0	0	0	1	-360	360;
	252	257	1037.2254900000426	113.97639700003383	0	0	0	0	0	0	1	-360	360;
	259	260	82.618470000000016	28.824294000000002	0	0	0	0	0	0	1	-360	360;
	259	264	24.068190000000005	8.3970160000000025	0	0	0	0	0	0	1	-360	360;
	264	266	24.623522000000005	10.988184000000002	0	0	0	0	0	0	1	-360	360;
	266	267	450.74582700000013	44.952759000000015	0	0	0	0	0	0	1	-360	360;
	266	270	47.191743000000017	21.059196000000004	0	0	0	0	0	0	1	-360	360;
	270	271	30.211189000000005	13.481666000000002	0	0	0	0	0	0	1	-360	360;
	271	272	789.97067800000013	78.783562000000018	0	0	0	0	0	0	1	-360	360;
	271	276	1037.2254900000426	113.97639700003383	0	0	0	0	0	0	1	-360	360;
	278	281	312.58821800000044	63.869485000000047	0	0	0	0	0	0	1	-360	360;
	278	283	24.068190000000005	8.3970160000000025	0	0	0	0	0	0	1	-360	360;
	283	285	24.623522000000005	10.988184000000002	0	0	0	0	0	0	1	-360	360;
	285	286	450.74582700000013	44.952759000000015	0	0	0	0	0	0	1	-360	360;
	285	289	47.191743000000017	21.059196000000004	0	0	0	0	0	0	1	-360	360;
	289	290	30.211189000000005	13.481666000000002	0	0	0	0	0	0	1	-360	360;
	290	291	789.97067800000013	78.783562000000018	0	0	0	0	0	0	1	-360	360;
	290	295	1037.2254900000426	113.97639700003383	0	0	0	0	0	0	1	-360	360;
	297	298	24.068190000000005	8.3970160000000025	0	0	0	0	0	0	1	-360	360;
	297	312	9.4643629999999987	3.5999419999999991	0	0	0	0	0	0	1	-360	360;
	297	331	9.4643629999999987	3.5999419999999991	0	0	0	0	0	0	1	-360	360;
	298	300	24.623522000000005	10.988184000000002	0	0	0	0	0	0	1	-360	360;
	300	301	450.74582700000013	44.952759000000015	0	0	0	0	0	0	1	-360	360;
	300	302	25.757084999999996	11.494033999999997	0	0	0	0	0	0	1	-360	360;
	302	305	51.645846999999982	23.046827999999994	0	0	0	0	0	0	1	-360	360;
	305	306	789.97067800000013	78.783562000000018	0	0	0	0	0	0	1	-360	360;
	305	310	1037.2254900000426	113.97639700003383	0	0	0	0	0	0	1	-360	360;
	312	315	312.58821800000044	63.869485000000047	0	0	0	0	0	0	1	-360	360;
	312	317	24.068190000000005	8.3970160000000025	0	0	0	0	0	0	1	-360	360;
	317	319	24.623522000000005	10.988184000000002	0	0	0	0	0	0	1	-360	360;
	319	320	450.74582700000013	44.952759000000015	0	0	0	0	0	0	1	-360	360;
	319	323	47.191743000000017	21.059196000000004	0	0	0	0	0	0	1	-360	360;
	323	324	30.211189000000005	13.481666000000002	0	0	0	0	0	0	1	-360	360;
	324	325	789.97067800000013	78.783562000000018	0	0	0	0	0	0	1	-360	360;
	324	329	1037.2254900000482	113.97639700002507	0	0	0	0	0	0	1	-360	360;
	331	334	312.58821800000044	63.869485000000047	0	0	0	0	0	0	1	-360	360;
	331	336	24.068190000000005	8.3970160000000025	0	0	0	0	0	0	1	-360	360;
	336	338	24.623522000000005	10.988184000000002	0	0	0	0	0	0	1	-360	360;
	338	339	450.74582700000013	44.952759000000015	0	0	0	0	0	0	1	-360	360;
	338	342	47.191743000000017	21.059196000000004	0	0	0	0	0	0	1	-360	360;
	342	343	30.211189000000005	13.481666000000002	0	0	0	0	0	0	1	-360	360;
	343	344	789.97067800000013	78.783562000000018	0	0	0	0	0	0	1	-360	360;
	343	348	1037.2254900000426	113.97639700003383	0	0	0	0	0	0	1	-360	360;
	350	351	24.068190000000005	8.3970160000000025	0	0	0	0	0	0	1	-360	360;
	350	365	9.4643629999999987	3.5999419999999991	0	0	0	0	0	0	1	-360	360;
	350	384	9.4643629999999987	3.5999419999999991	0	0	0	0	0	0	1	-360	360;
	351	353	24.623522000000005	10.988184000000002	0	0	0	0	0	0	1	-360	360;
	353	354	450.74582700000013	44.952759000000015	0	0	0	0	0	0	1	-360	360;
	353	355	25.757084999999996	11.494033999999997	0	0	0	0	0	0	1	-360	360;
	355	358	51.645846999999982	23.046827999999994	0	0	0	0	0	0	1	-360	360;
	358	359	789.97067800000013	78.783562000000018	0	0	0	0	0	0	1	-360	360;
...
];
